LAMMPS (10 Feb 2021)
# Input written to comply with LAMMPS 2017-08-11 00:00:00

# Atomic Configuration
units           metal
boundary        p p p
box tilt large
atom_style      charge
read_data       na3ocl_ca.lmp
Reading data file ...
  orthogonal box = (0.0000000 0.0000000 0.0000000) to (22.505000 22.505000 22.505000)
  reading atoms ...
  624 atoms

# Potential Setup
pair_style  buck/coul/long 12.0
pair_coeff * * 0.0 1.0 0.0
pair_coeff 2 2    1788.190000  0.159000   0.000000 # Na Na
pair_coeff 2 4    1170.410000  0.315000   0.000000 # Na Cl
pair_coeff 2 3     588.380000  0.338000   0.000000 # Na O
pair_coeff 4 4    1227.200000  0.321000  14.530000 # Cl Cl
pair_coeff 3 4    8286.910000  0.259000  62.200000 # Cl O
pair_coeff 3 3   22764.300000  0.149000  13.190000 # O  O
pair_coeff 1 3    1090.400000  0.343700   0.000000 # O Ca
pair_coeff 1 4    2303.000000  0.340200   0.000000 # Cl Ca
kspace_style pppm 1e-05

# General Setup
timestep        0.001

# Thermodynamic Information Output
thermo_style custom step temp epair emol etotal press lx ly lz fmax cpu cpuremain
thermo          1000

# Intial Atom Velocity
velocity all create 800 80800 dist gaussian rot yes

# Stage 0: npt_equilibriation
restart         0
fix             int all npt aniso 1.0 1.0 0.1 temp 800 800 0.5
run             50000
PPPM initialization ...
  G vector (1/distance) = 0.26613179
  grid = 20 20 20
  stencil order = 5
  estimated absolute RMS force accuracy = 0.00016248967
  estimated relative force accuracy = 1.1284283e-05
  3d grid and FFT values/proc = 19683 8000
  update every 1 steps, delay 10 steps, check yes
Step Temp E_pair E_mol TotEng Press Lx Ly Lz Fmax CPU CPULeft
0          800   -4329.7481            0   -4265.3249   -18370.179       22.505       22.505       22.505     3.502842            0            0
Averages over the last 26 of 51 rows, steps 25000 to 50000:
Temp E_pair E_mol TotEng Press Lx Ly Lz Fmax
799.073 -4276.12 0 -4211.77 -685.663 22.4494 22.4765 22.3814 2.76104
Loop time of 467.21 on 1 procs for 50000 steps with 624 atoms

# Stage 1: nvt_equilibriation
unfix int
restart         0
fix             int all nvt temp 800 800 0.5
run             50000
PPPM initialization ...
  G vector (1/distance) = 0.26768902
  grid = 20 24 20
  stencil order = 5
  estimated absolute RMS force accuracy = 0.00014209178
  estimated relative force accuracy = 9.8677279e-06
  3d grid and FFT values/proc = 22599 9600
Step Temp E_pair E_mol TotEng Press Lx Ly Lz Fmax CPU CPULeft
50000    812.61796   -4275.5469            0   -4210.1075   -559.49153    22.509851    22.538242    22.288228    3.1363886            0            0
Averages over the last 26 of 51 rows, steps 75000 to 100000:
Temp E_pair E_mol TotEng Press Lx Ly Lz Fmax
802.928 -4276.2 0 -4211.54 -692.982 22.5099 22.5382 22.2882 2.74752
Loop time of 400.107 on 1 procs for 50000 steps with 624 atoms

# Stage 2: main_nvt_simulation
unfix int
dump     atom_info all custom 1000 ca.lammpstrj element x y z q id type vx vy vz
dump_modify     atom_info append yes
dump_modify     atom_info sort id
dump_modify     atom_info element Ca Na O Cl
restart         0
fix             int all nvt temp 800 800 0.5
run             2000000
PPPM initialization ...
  G vector (1/distance) = 0.26768902
  grid = 20 24 20
  stencil order = 5
  estimated absolute RMS force accuracy = 0.00014209178
  estimated relative force accuracy = 9.8677279e-06
  3d grid and FFT values/proc = 22599 9600
Step Temp E_pair E_mol TotEng Press Lx Ly Lz Fmax CPU CPULeft
100000    777.88834   -4277.3603            0   -4214.7177   -714.83705    22.509851    22.538242    22.288228    2.9301972            0            0
Averages over the last 1001 of 2001 rows, steps 1100000 to 2100000:
Temp E_pair E_mol TotEng Press Lx Ly Lz Fmax
800.199 -4276.23 0 -4211.79 -931.757 22.5099 22.5382 22.2882 2.90293
Loop time of 15935.7 on 1 procs for 2000000 steps with 624 atoms

# Final Commands
variable final_energy equal etotal
final_energy: -4212.26570618402
print "END_OF_COMP"
END_OF_COMP
